63
Properties=species:S:1:pos:R:3:forces:R:3 energy=-52533.67357086978 dipole="2.0774502909840034 -0.21154508980657286 -0.026189581825292907" pbc="F F F"
C       -5.15997700       2.51666600       0.13385200       0.00000036       0.00000951      -0.00005296
N       -4.11318300       3.25884100       0.34520900      -0.00000494       0.00000915      -0.00006186
C       -3.03757600       2.40528500       0.16733500      -0.00000247       0.00000602      -0.00004427
C       -3.47375800       1.12542400      -0.16445200      -0.00000437       0.00000561      -0.00002659
N       -4.84892300       1.19858400      -0.20133300      -0.00000237       0.00000031      -0.00003476
C       -5.81833900       0.11949900      -0.28298300       0.00000113       0.00000535      -0.00001851
C       -5.74629500      -0.78873700      -1.56272900      -0.00000201      -0.00001517      -0.00001059
C       -5.91327300      -2.19989400      -0.95125000       0.00000165      -0.00000689       0.00001075
C       -5.21803400      -2.02945100       0.39801900       0.00000165       0.00000802       0.00001034
O       -5.71452900      -0.74732200       0.84154500       0.00000293       0.00002062      -0.00001054
C       -5.49521000      -3.09227000       1.44067300       0.00000740       0.00002854       0.00002566
O       -4.80883300      -2.87575100       2.66479700       0.00001034       0.00004093       0.00002335
O       -7.28308700      -2.56370900      -0.80904200       0.00000005      -0.00000396       0.00001250
O       -4.59349600      -0.65296800      -2.35084700      -0.00000324      -0.00002700      -0.00000910
N       -2.72383900       0.02828500      -0.42038000       0.00000093      -0.00000139      -0.00001270
C       -1.41845800       0.24380600      -0.32333600      -0.00000915      -0.00000828      -0.00001352
N       -0.89324600       1.46032200       0.01227500      -0.00000247       0.00000278      -0.00002463
C       -1.63182200       2.63434900       0.27676300      -0.00000154       0.00000345      -0.00004628
O       -1.03735000       3.67530800       0.55964700      -0.00000062       0.00001363      -0.00005893
N       -0.55029400      -0.76126900      -0.54626300       0.00000226      -0.00000298       0.00000854
H       -6.18864400       2.84183400       0.19521400      -0.00000329       0.00001039      -0.00006073
H       -6.79188300       0.60957100      -0.22529400      -0.00000216       0.00000499      -0.00003116
H       -6.59086600      -0.57441100      -2.21783200      -0.00000663      -0.00002273      -0.00001435
H       -5.45980000      -2.95174200      -1.59540600      -0.00000154      -0.00001486       0.00002283
H       -4.13410900      -1.94841600       0.23856500       0.00000391       0.00000905       0.00001280
H       -5.23546500      -4.06799400       1.00569600       0.00000761       0.00001954       0.00003949
H       -6.55299600      -3.11774100       1.69964100       0.00000869       0.00003255       0.00002108
H       -3.86820000      -2.74929000       2.48978300       0.00000931       0.00004150       0.00002463
H       -7.67885100      -2.03632000      -0.10224800       0.00000221       0.00000843       0.00000437
H       -3.79370200      -0.64115300      -1.78867800      -0.00000792      -0.00002021      -0.00000360
H        0.13260700       1.56672100       0.05718000      -0.00000165       0.00000267      -0.00002617
H       -0.92605100      -1.63642700      -0.86837700      -0.00000021      -0.00001028       0.00001717
H        0.46053700      -0.61587200      -0.56612900      -0.00000401      -0.00000612       0.00000473
C        3.97557000       3.16982700       0.58459000      -0.00000278       0.00000396      -0.00003738
C        4.74091200       2.10080500       0.27444300      -0.00000087       0.00000005      -0.00001928
N        4.18129400       0.91520200      -0.12108000      -0.00000288      -0.00000658      -0.00000622
C        2.76037600       0.78630700      -0.19658800      -0.00000278      -0.00000417      -0.00000596
O        2.28321700      -0.29056500      -0.56239800      -0.00000015      -0.00001301       0.00000761
N        2.00306700       1.85747900       0.12239900      -0.00000190      -0.00000437      -0.00002263
C        2.55121400       3.01502900       0.50308100      -0.00000005       0.00000309      -0.00004181
N        1.73451700       4.02574600       0.80267600      -0.00000247       0.00000874      -0.00005178
C        4.95332200      -0.27349200      -0.38236200       0.00000237      -0.00000864       0.00001286
C        6.34424100      -0.18962900      -1.02035400      -0.00000345      -0.00002185       0.00001517
C        6.75076500      -1.67127800      -0.88298200      -0.00000165      -0.00002108       0.00003908
C        6.13251700      -2.04416000       0.50570000       0.00000298       0.00000129       0.00004278
O        5.22515500      -0.96946000       0.84052100       0.00000267       0.00000504       0.00002468
C        5.43299000      -3.39841600       0.54452700       0.00000648      -0.00000139       0.00005790
O        5.01289100      -3.75865100       1.85026000       0.00000879       0.00002278       0.00006484
O        6.32114700      -2.47547200      -1.96981400      -0.00000273      -0.00003594       0.00004875
O        7.24955100       0.64729600      -0.30907400      -0.00000278      -0.00001193       0.00000828
H        4.42877000       4.10651400       0.88010200      -0.00000247       0.00000725      -0.00004834
H        5.81954900       2.12851400       0.28934600      -0.00000190      -0.00000283      -0.00001769
H        0.71270300       3.91983400       0.72505900      -0.00000499       0.00000920      -0.00005718
H        2.10889200       4.91459400       1.08888800      -0.00000278       0.00001363      -0.00006721
H        4.30303800      -0.88423000      -1.01454400      -0.00000278      -0.00001836       0.00002216
H        6.34506400       0.14868300      -2.05473300      -0.00000581      -0.00003646       0.00001239
H        7.83547700      -1.76385300      -0.87861300      -0.00000062      -0.00002103       0.00004319
H        6.91149100      -2.03423100       1.27644500       0.00000638       0.00000967       0.00004412
H        6.09311800      -4.15688800       0.10694400       0.00000447      -0.00000483       0.00007245
H        4.51806000      -3.36702300      -0.05000500       0.00000283      -0.00000576       0.00005610
H        5.78153700      -3.97821900       2.39019500       0.00001111       0.00002494       0.00006834
H        5.36105300      -2.44783000      -2.06810500      -0.00000267      -0.00003507       0.00004535
H        7.27059200       0.36536800       0.61594800       0.00000051       0.00000051       0.00001239
