63
Properties=species:S:1:pos:R:3 energy=-52533.6498825419 pbc="F F F"
C       -5.15997700       2.51666600       0.13385200
N       -4.11318300       3.25884100       0.34520900
C       -3.03757600       2.40528500       0.16733500
C       -3.47375800       1.12542400      -0.16445200
N       -4.84892300       1.19858400      -0.20133300
C       -5.81833900       0.11949900      -0.28298300
C       -5.74629500      -0.78873700      -1.56272900
C       -5.91327300      -2.19989400      -0.95125000
C       -5.21803400      -2.02945100       0.39801900
O       -5.71452900      -0.74732200       0.84154500
C       -5.49521000      -3.09227000       1.44067300
O       -4.80883300      -2.87575100       2.66479700
O       -7.28308700      -2.56370900      -0.80904200
O       -4.59349600      -0.65296800      -2.35084700
N       -2.72383900       0.02828500      -0.42038000
C       -1.41845800       0.24380600      -0.32333600
N       -0.89324600       1.46032200       0.01227500
C       -1.63182200       2.63434900       0.27676300
O       -1.03735000       3.67530800       0.55964700
N       -0.55029400      -0.76126900      -0.54626300
H       -6.18864400       2.84183400       0.19521400
H       -6.79188300       0.60957100      -0.22529400
H       -6.59086600      -0.57441100      -2.21783200
H       -5.45980000      -2.95174200      -1.59540600
H       -4.13410900      -1.94841600       0.23856500
H       -5.23546500      -4.06799400       1.00569600
H       -6.55299600      -3.11774100       1.69964100
H       -3.86820000      -2.74929000       2.48978300
H       -7.67885100      -2.03632000      -0.10224800
H       -3.79370200      -0.64115300      -1.78867800
H        0.13260700       1.56672100       0.05718000
H       -0.92605100      -1.63642700      -0.86837700
H        0.46053700      -0.61587200      -0.56612900
C        4.07557000       3.16982700       0.58459000
C        4.84091200       2.10080500       0.27444300
N        4.28129400       0.91520200      -0.12108000
C        2.86037600       0.78630700      -0.19658800
O        2.38321700      -0.29056500      -0.56239800
N        2.10306700       1.85747900       0.12239900
C        2.65121400       3.01502900       0.50308100
N        1.83451700       4.02574600       0.80267600
C        5.05332200      -0.27349200      -0.38236200
C        6.44424100      -0.18962900      -1.02035400
C        6.85076500      -1.67127800      -0.88298200
C        6.23251700      -2.04416000       0.50570000
O        5.32515500      -0.96946000       0.84052100
C        5.53299000      -3.39841600       0.54452700
O        5.11289100      -3.75865100       1.85026000
O        6.42114700      -2.47547200      -1.96981400
O        7.34955100       0.64729600      -0.30907400
H        4.52877000       4.10651400       0.88010200
H        5.91954900       2.12851400       0.28934600
H        0.81270300       3.91983400       0.72505900
H        2.20889200       4.91459400       1.08888800
H        4.40303800      -0.88423000      -1.01454400
H        6.44506400       0.14868300      -2.05473300
H        7.93547700      -1.76385300      -0.87861300
H        7.01149100      -2.03423100       1.27644500
H        6.19311800      -4.15688800       0.10694400
H        4.61806000      -3.36702300      -0.05000500
H        5.88153700      -3.97821900       2.39019500
H        5.46105300      -2.44783000      -2.06810500
H        7.37059200       0.36536800       0.61594800
