16
Properties=species:S:1:pos:R:3:forces:R:3 energy=-6366.372231314887 pbc="F F F"
C        0.30595586       0.84276391       1.21317669      -0.00087932      -0.00879832       0.00873147
C        0.23539258      -0.68239303       1.36494235       0.00190776      -0.01874849      -0.00937424
C       -0.55288189       0.78292167      -0.05741790      -0.00008228      -0.01475299       0.00762589
C       -0.55288189      -0.78292167       0.05741790      -0.00008228       0.01475299      -0.00762589
C        0.23539258       0.68239303      -1.36494235       0.00190776       0.01874849       0.00937424
C        0.30595586      -0.84276391      -1.21317669      -0.00087932       0.00879832      -0.00873147
H        1.29656410       1.27125887       1.10212708       0.00149638      -0.01190421       0.01280409
H       -0.18413698       1.36654365       2.02888449      -0.00199003      -0.02134530       0.01424905
H       -0.35468308      -0.96898343       2.23148970      -0.00108501      -0.02117561      -0.00840237
H        1.16320199      -1.24440325       1.40091313       0.00057078      -0.01453702      -0.01417192
H       -1.45638258       1.38613852      -0.06034350       0.00006685       0.00328073       0.01423877
H       -1.45638258      -1.38613852       0.06034350       0.00006685      -0.00328073      -0.01423877
H        1.16320199       1.24440325      -1.40091313       0.00057078       0.01453702       0.01417192
H       -0.35468308       0.96898343      -2.23148970      -0.00108501       0.02117561       0.00840237
H        1.29656410      -1.27125887      -1.10212708       0.00149638       0.01190421      -0.01280409
H       -0.18413698      -1.36654365      -2.02888449      -0.00199003       0.02134530      -0.01424905
