16
Properties=species:S:1:pos:R:3:forces:R:3 energy=-6375.48674949759 pbc="F F F"
C        1.02927430       0.81900067      -0.77180976       0.00467427      -0.00474111      -0.00194375
C        1.08324218       0.79442495       0.78730213      -0.00146553       0.00187176      -0.00008228
C       -0.48352080       0.44719478      -0.73655357       0.00368696       0.00991932      -0.00219058
C       -0.37325366       0.27174060       0.82835196       0.00010799      -0.00243226       0.00562557
C       -0.78471613      -1.06432810      -0.88528903       0.00133697      -0.00053479       0.00011313
C       -0.51890948      -1.26792141       0.63783047       0.00393379      -0.00208259       0.00123413
H        1.66379865       0.06219412      -1.27742054      -0.00190776       0.00150667      -0.00185119
H        1.25314137       1.80592244      -1.22106751      -0.00184605       0.00102330      -0.00112614
H        1.18478281       1.80901688       1.22095394       0.00069934      -0.00024683       0.00063249
H        1.84769864       0.14014158       1.25575505       0.00123413       0.00154266      -0.00013370
H       -1.17465073       1.16227533      -1.22271518      -0.00536846      -0.00494166       0.00066334
H       -1.07056500       0.74572243       1.54557887      -0.00159408       0.00146553      -0.00099759
H       -0.13405031      -1.62378586      -1.58929490      -0.00303904      -0.00053993      -0.00156837
H       -1.83985808      -1.26115599      -1.16050445      -0.00051936      -0.00113643      -0.00020055
H        0.40330624      -1.83434463       0.88186304      -0.00043709      -0.00100273       0.00051936
H       -1.35914000      -1.72799779       1.19290948       0.00050394       0.00032396       0.00130612
