8
Properties=species:S:1:pos:R:3 energy=-2167.8574457392087 pbc="F F F"
C        0.00000000      -0.00001000       0.83166900
C        0.00000000       0.00001000      -0.83166900
H        0.00000000       1.02630000       1.19716600
H       -0.88881500      -0.51315300       1.19717900
H        0.88881500      -0.51315300       1.19717900
H        0.00000000      -1.02630000      -1.19716600
H       -0.88881500       0.51315300      -1.19717900
H        0.88881500       0.51315300      -1.19717900
