12
Properties=species:S:1:pos:R:3:forces:R:3 energy=-6306.942974960887 pbc="F F F"
C        0.22243587      -0.82890481       0.75587839       0.00275108      -0.00078676       0.00082275
C        0.60701192       0.60705833       0.75624444       0.00087418      -0.00033424       0.00034967
C       -0.82892730       0.22245041       0.75590370      -0.00101816       0.00262253       0.00049879
C        0.60705833       0.60701192      -0.75624444      -0.00033424       0.00087418      -0.00034967
C        0.22245041      -0.82892730      -0.75590370       0.00262253      -0.00101816      -0.00049879
C       -0.82890481       0.22243587      -0.75587839      -0.00078676       0.00275108      -0.00082275
H        0.42458836      -1.58526082       1.48239339      -0.00207745       0.00065306       0.00000000
H        1.16037455       1.16012955       1.48324489      -0.00113643      -0.00060164       0.00009770
H       -1.58539200       0.42443795       1.48235336       0.00087932      -0.00182548       0.00015941
H        1.16012955       1.16037455      -1.48324489      -0.00060164      -0.00113643      -0.00009770
H        0.42443795      -1.58539200      -1.48235336      -0.00182548       0.00087932      -0.00015941
H       -1.58526082       0.42458836      -1.48239339       0.00065306      -0.00207745      -0.00000000
